Version 4
SHEET 1 880 680

SYMBOL voltage 96 48 R0
SYMATTR InstName VCC
SYMATTR Value 5

SYMBOL gnd 96 96 R0

SYMBOL voltage 80 200 R0
SYMATTR InstName Vin1
SYMATTR Value PULSE(0 1 1m 1u 1u 3m 6m)

SYMBOL voltage 80 340 R0
SYMATTR InstName Vin2
SYMATTR Value PULSE(0 1 2m 1u 1u 4m 8m)

* First comparator input network
SYMBOL res 200 200 R0
SYMATTR InstName R1a
SYMATTR Value 33k

SYMBOL res 260 200 R0
SYMATTR InstName R1b
SYMATTR Value 1k

* Second comparator input
SYMBOL res 200 340 R0
SYMATTR InstName R2a
SYMATTR Value 33k

SYMBOL res 260 340 R0
SYMATTR InstName R2b
SYMATTR Value 1k

* Outputs
SYMBOL res 620 170 R0
SYMATTR InstName Rpull1
SYMATTR Value 4.7k

SYMBOL res 620 320 R0
SYMATTR InstName Rpull2
SYMATTR Value 4.7k

* DIODES
SYMBOL diode 580 170 R0
SYMATTR InstName D1
SYMATTR Value 1N4148

SYMBOL diode 580 320 R0
SYMATTR InstName D2
SYMATTR Value 1N4148

* Custom CA139EX part
SYMBOL CA139EX 420 250 R0
SYMATTR InstName U1
SYMATTR Value CA139EX

* Wiring
WIRE 96 48 140 48
WIRE 96 96 140 96
WIRE 140 48 420 48
WIRE 420 48 420 80
WIRE 420 320 420 360
WIRE 140 96 420 96

WIRE 80 200 200 200
WIRE 260 200 420 200

WIRE 80 340 200 340
WIRE 260 340 420 340

* Comparator outputs
WIRE 420 160 580 160
WIRE 580 160 620 160
WIRE 620 160 680 160

WIRE 420 300 580 300
WIRE 580 300 620 300
WIRE 620 300 680 300

* Output nets
FLAG 680 160 OUT1
FLAG 680 300 OUT2

FLAG 420 360 0

* Power
FLAG 420 80 VCC
FLAG 420 320 0

* Input nets
FLAG 260 200 IN1
FLAG 260 340 IN2

* Analysis
TEXT 700 420 Left 0 !.tran 10m

