Version 4
SHEET 1 880 680

WIRE 80 128 80 160
WIRE 80 160 160 160
WIRE 160 160 160 128
WIRE 160 192 160 224
WIRE 160 224 240 224
WIRE 240 224 320 224
WIRE 240 128 320 128
WIRE 320 128 320 160
WIRE 320 160 320 192
WIRE 320 160 400 160
WIRE 400 160 480 160
WIRE 480 160 480 128
WIRE 480 160 480 192
WIRE 480 224 480 192
WIRE 480 224 480 256
WIRE 480 256 400 256
WIRE 400 256 400 288
WIRE 480 160 560 160
WIRE 560 160 560 128
WIRE 560 160 560 192

FLAG 80 128 0
FLAG 560 128 VCC
FLAG 400 288 0
FLAG 80 160 IN
FLAG 320 128 NINV
FLAG 320 224 INV
FLAG 560 160 OUT

SYMBOL voltage 80 96 R0
WINDOW 3 24 96 Left 0
SYMATTR InstName Vin
SYMATTR Value SINE(0 1 1k)

SYMBOL res 160 144 R0
SYMATTR InstName R501
SYMATTR Value 1k

SYMBOL res 160 208 R0
SYMATTR InstName R502
SYMATTR Value 1k

SYMBOL cap 240 208 R0
SYMATTR InstName C501
SYMATTR Value 470n

SYMBOL diode 240 144 R0
SYMATTR InstName D501
SYMATTR Value 1N4148

SYMBOL opamp2 320 160 R0
SYMATTR InstName U1
SYMATTR Value LM393

SYMBOL res 480 112 R0
SYMATTR InstName R513
SYMATTR Value 22k

SYMBOL res 400 240 R0
SYMATTR InstName R512
SYMATTR Value 220k

SYMBOL res 400 304 R0
SYMATTR InstName R511
SYMATTR Value 13.12k

SYMBOL diode 560 144 R0
SYMATTR InstName D502
SYMATTR Value 1N4148

SYMBOL res 560 112 R0
SYMATTR InstName R506
SYMATTR Value 1k

SYMBOL voltage 560 96 R0
SYMATTR InstName VCC
SYMATTR Value 5

TEXT 80 350 Left 0 !.tran 5m
TEXT 80 380 Left 0 !.plot tran V(IN) V(OUT)

